LTspice 24.0.12 for Windows
Circuit: * C:\Users\rejav\Projects\GitHub\ltspice\Buck4.asc
Start Time: Wed Jun 12 14:07:56 2024
solver = Normal
Maximum thread count: 12
tnom = 27
temp = 27
method = modified trap
Limiting fall time of source v1 to 5e-07
Direct Newton iteration for .op point succeeded.
Total elapsed time: 0.404 seconds.

