LTspice 24.0.12 for Windows
Circuit: * C:\Users\rejav\Projects\GitHub\ltspice\Buck4.asc
Start Time: Tue Jun 11 15:12:26 2024
solver = Normal
Maximum thread count: 12
tnom = 27
temp = 27
method = modified trap
Limiting fall time of source v1 to 4.99999e-08
Direct Newton iteration for .op point succeeded.
Total elapsed time: 1.268 seconds.

