LTspice 24.0.12 for Windows
Circuit: * C:\Users\rejav\Projects\GitHub\ltspice\LX_Overcurrent_Threshold_Test.asc
Start Time: Tue Jun 25 11:16:25 2024
solver = Normal
Maximum thread count: 12
tnom = 27
temp = 27
method = modified trap
Direct Newton iteration for .op point succeeded.
Total elapsed time: 0.077 seconds.

