LTspice 24.0.12 for Windows
Circuit: * C:\Users\rejav\Projects\GitHub\ltspice\Simple_Buck.asc
Start Time: Tue Jun 11 12:52:54 2024
solver = Normal
Maximum thread count: 12
tnom = 27
temp = 27
method = modified trap
Limiting rise time of source v1 to 0.0005
Limiting fall time of source v1 to 0.0005
Direct Newton iteration for .op point succeeded.
Total elapsed time: 0.120 seconds.

